#!/sbin/sh

######
# INIT
######

umask 0022

# Global vars.
TMPDIR='/dev/tmp'
PERSISTDIR='/sbin/.magisk/mirror/persist'
NVBASE='/data/adb'
"$BOOTMODE" && MODDIRNAME='modules_update' || MODDIRNAME='modules'
MODULEROOT="$NVBASE/$MODDIRNAME"

# Echo before loading util_functions.
ui_print() { echo "$@"; }

# Load VKS.
load_vksel() { source "$MODPATH/addon/Volume-Key-Selector/install.sh"; }

# Remove if exists.
rm_exist() { [[ -e "$1" ]] && rm -rf "$1" 2>/dev/null; }

# Use `api_level_arch_detect` function to setup native libraries.
configure_native_libs() {
  if [[ "$ARCH" == "arm64" ]]; then
    mv -f "$MODPATH"/libs/arm64-v8a/* "$MODPATH/libs"
    rm -rf "$MODPATH/libs/arm64-v8a"
    rm -rf "$MODPATH/libs/armeabi-v7a"
    rm -rf "$MODPATH/libs/x86"
    rm -rf "$MODPATH/libs/x86_64"
  elif [[ "$ARCH" == "arm" ]]; then
    mv -f "$MODPATH"/libs/armeabi-v7a/* "$MODPATH/libs"
    rm -rf "$MODPATH/libs/armeabi-v7a"
    rm -rf "$MODPATH/libs/arm64-v8a"
    rm -rf "$MODPATH/libs/x86"
    rm -rf "$MODPATH/libs/x86_64"
  elif [[ "$ARCH" == "x86" ]]; then
    mv -f "$MODPATH"/libs/x86/* "$MODPATH/libs"
    rm -rf "$MODPATH/libs/x86"
    rm -rf "$MODPATH/libs/armeabi-v7a"
    rm -rf "$MODPATH/libs/arm64-v8a"
    rm -rf "$MODPATH/libs/x86_64"
  elif [[ "$ARCH" == "x64" ]]; then
    mv -f "$MODPATH"/libs/x86_64/* "$MODPATH/libs"
    rm -rf "$MODPATH/libs/x86_64"
    rm -rf "$MODPATH/libs/armeabi-v7a"
    rm -rf "$MODPATH/libs/x86"
    rm -rf "$MODPATH/libs/arm64-v8a"
  fi
}

# Create temp dir.
rm_exist "$TMPDIR"
mkdir -p "$TMPDIR"

####################
# SETUP ENVIRONMENT
####################

OUTFD="$2"
ZIPFILE="$3"

# Mount /data to setup environment for mod installation.
mount '/data' 2>/dev/null

# Load utility functions.
source "$NVBASE/magisk/util_functions.sh"

# Preperation for flashable zips.
setup_flashable

# Mount partitions.
mount_partitions

# Detect version and architecture.
api_level_arch_detect

# Setup busybox and binaries.
"$BOOTMODE" && boot_actions || recovery_actions

##############
# PREPARATION
##############

# Extract prop file.
unzip -o "$ZIPFILE" module.prop -d "$TMPDIR" >&2
[[ ! -f "$TMPDIR/module.prop" ]] && abort "[!] Unable to extract zip file!"

# Get module info.
MODID="$(grep_prop "id" "$TMPDIR/module.prop")"
MODPATH="$MODULEROOT/$MODID"
MODNAME="$(grep_prop "name" "$TMPDIR/module.prop")"

# Create mod path.
rm_exist "$MODPATH"
mkdir -p "$MODPATH"

##############
# INSTALLATION
##############

# Extract to module files to $MODPATH.
unzip -o "$ZIPFILE" -d "$MODPATH" >&2

# Load mod installation setup script.
source "$MODPATH/setup.sh"

# Remove all old files before doing installation if want to.
"$CLEANSERVICE" && rm -rf "/data/adb/modules/$MODID"

# Enable debugging if true.
"$DEBUG" && set -x || set +x

# Print mod info.
info_print

# Auto vskel load.
"$AUTOVKSEL" && load_vksel

# Initialize main.
init_main

# Skip mount.
"$SKIPMOUNT" && touch "$MODPATH/skip_mount"

# Set permissions.
set_permissions

# Handle replace folders.
[[ ! -z "$REPLACE" ]] && {
  for TARGET in "$REPLACE"; do
    ui_print "[*] Replace target: $TARGET"
    mktouch "$MODPATH$TARGET/.replace"
  done
}

# Update info for Magisk app.
"$BOOTMODE" && {
  mktouch "$NVBASE/modules/$MODID/update"
  cp -af "$MODPATH/module.prop" "$NVBASE/modules/$MODID/module.prop"
}

# Copy over custom sepolicy rules.
[[ -f "$MODPATH/sepolicy.rule" ]] && {
  ui_print "[*] Installing custom sepolicy rules..."
  copy_sepolicy_rules
}

# Remove stuffs that don't belong to modules.
rm_exist "$MODPATH/META-INF"
rm_exist "$MODPATH/addon"
rm_exist "$MODPATH/setup.sh"
rm_exist "$MODPATH/LICENSE"
rm_exist "$MODPATH/README.md"

##############
# Finalizing
##############

cd /
"$BOOTMODE" || recovery_cleanup
rm_exist "$TMPDIR"
exit 0
